Version 4.1
SHEET 1 880 680
WIRE -64 -416 -64 -448
WIRE -64 -416 -144 -416
WIRE 0 -416 -64 -416
WIRE -144 -368 -144 -416
WIRE 0 -368 0 -416
WIRE 48 -64 16 -64
WIRE 208 -64 128 -64
WIRE 368 -32 336 -32
WIRE 512 -32 448 -32
WIRE -112 32 -176 32
WIRE 16 32 16 -64
WIRE 16 32 -32 32
WIRE 64 32 16 32
WIRE 208 48 208 -64
WIRE 208 48 128 48
WIRE 64 64 32 64
WIRE 32 96 32 64
WIRE 208 112 208 48
WIRE 336 112 336 -32
WIRE 336 112 288 112
WIRE 336 160 336 112
WIRE 368 160 336 160
WIRE 512 176 512 -32
WIRE 512 176 432 176
WIRE 48 192 16 192
WIRE 208 192 128 192
WIRE 368 192 336 192
WIRE 208 256 208 192
WIRE 336 256 336 192
WIRE 336 256 288 256
WIRE -112 288 -176 288
WIRE 16 288 16 192
WIRE 16 288 -32 288
WIRE 64 288 16 288
WIRE 336 288 336 256
WIRE 208 304 208 256
WIRE 208 304 128 304
WIRE 64 320 32 320
WIRE 32 352 32 320
FLAG -64 -448 0
FLAG 32 96 0
FLAG 32 352 0
FLAG 0 -288 +12IN
FLAG 96 16 +12IN
FLAG 96 272 +12IN
FLAG 400 144 +12IN
FLAG -144 -288 -12IN
FLAG 96 80 -12IN
FLAG 96 336 -12IN
FLAG 400 208 -12IN
FLAG 336 368 0
FLAG -256 32 0
FLAG -256 288 0
SYMBOL OpAmps\\UniversalOpAmp5 96 48 R0
SYMATTR InstName U1
SYMBOL OpAmps\\UniversalOpAmp5 96 304 R0
SYMATTR InstName U2
SYMBOL OpAmps\\UniversalOpAmp5 400 176 R0
SYMATTR InstName U3
SYMBOL res 464 -48 R90
WINDOW 0 0 56 VBottom 2
WINDOW 3 32 56 VTop 2
SYMATTR InstName R1
SYMATTR Value 22k
SYMBOL res 304 240 R90
WINDOW 0 0 56 VBottom 2
WINDOW 3 32 56 VTop 2
SYMATTR InstName R3
SYMATTR Value 22k
SYMBOL res 304 96 R90
WINDOW 0 0 56 VBottom 2
WINDOW 3 32 56 VTop 2
SYMATTR InstName R2
SYMATTR Value 22k
SYMBOL res 320 384 M180
WINDOW 0 36 76 Left 2
WINDOW 3 36 40 Left 2
SYMATTR InstName R4
SYMATTR Value 22k
SYMBOL res 144 -48 M270
WINDOW 0 32 56 VTop 2
WINDOW 3 54 103 VBottom 2
SYMATTR InstName R5
SYMATTR Value 2.2K
SYMBOL res -16 48 M270
WINDOW 0 32 56 VTop 2
WINDOW 3 0 56 VBottom 2
SYMATTR InstName R6
SYMATTR Value 2.2k
SYMBOL res 144 208 M270
WINDOW 0 32 56 VTop 2
WINDOW 3 50 103 VBottom 2
SYMATTR InstName R7
SYMATTR Value 2.2k
SYMBOL res -16 304 M270
WINDOW 0 32 56 VTop 2
WINDOW 3 0 56 VBottom 2
SYMATTR InstName R8
SYMATTR Value 2.2k
SYMBOL voltage -144 -384 R0
WINDOW 123 0 0 Left 0
WINDOW 39 0 0 Left 0
SYMATTR InstName Vcc1
SYMATTR Value 12
SYMBOL voltage 0 -272 R180
WINDOW 0 24 96 Left 2
WINDOW 3 24 16 Left 2
WINDOW 123 0 0 Left 0
WINDOW 39 0 0 Left 0
SYMATTR InstName Vcc2
SYMATTR Value 12
SYMBOL voltage -160 32 R90
WINDOW 0 -32 56 VBottom 2
WINDOW 3 32 56 VTop 2
WINDOW 123 0 0 Left 0
WINDOW 39 0 0 Left 0
SYMATTR InstName V1
SYMATTR Value SINE(0 10 10)
SYMBOL voltage -160 288 R90
WINDOW 0 -32 56 VBottom 2
WINDOW 3 32 56 VTop 2
WINDOW 123 0 0 Left 0
WINDOW 39 0 0 Left 0
SYMATTR InstName V2
SYMATTR Value SINE(0 4 10)
TEXT -304 456 Left 2 !.tran 0 1 0
