Version 4
SHEET 1 1576 680
WIRE 992 -64 880 -64
WIRE 992 -16 992 -64
WIRE 1184 0 1072 0
WIRE 1312 0 1184 0
WIRE 1504 0 1312 0
WIRE 1184 16 1184 0
WIRE 1312 16 1312 0
WIRE 720 32 464 32
WIRE 880 32 880 -64
WIRE 880 32 720 32
WIRE 1504 32 1504 0
WIRE 464 80 464 32
WIRE 464 80 384 80
WIRE 528 80 464 80
WIRE 352 96 48 96
WIRE -16 128 -160 128
WIRE 976 128 976 96
WIRE 1072 128 1072 0
WIRE 1072 128 976 128
WIRE 352 160 352 96
WIRE 384 160 384 144
WIRE 384 160 352 160
WIRE 528 160 528 144
WIRE 528 160 496 160
WIRE 720 160 720 96
WIRE 720 160 640 160
WIRE 1008 160 1008 96
WIRE 1008 160 720 160
WIRE 1184 160 1184 80
WIRE 1184 160 1008 160
WIRE 1312 160 1312 80
WIRE 1312 160 1184 160
WIRE 1504 160 1504 112
WIRE 1504 160 1312 160
WIRE 144 176 48 176
WIRE 176 176 144 176
WIRE 384 176 384 160
WIRE 528 176 528 160
WIRE 48 192 48 176
WIRE 1504 192 1504 160
WIRE -16 208 -160 208
WIRE 1184 208 1184 160
WIRE 1312 208 1312 160
WIRE 464 240 384 240
WIRE 528 240 464 240
WIRE 720 240 720 160
WIRE 496 272 496 160
WIRE 496 272 48 272
WIRE 464 304 464 240
WIRE 720 304 464 304
WIRE 864 304 720 304
WIRE 864 320 864 304
WIRE 1184 320 1184 272
WIRE 1184 320 1120 320
WIRE 1312 320 1312 272
WIRE 1312 320 1184 320
WIRE 1504 320 1504 272
WIRE 1504 320 1312 320
WIRE 144 336 144 176
WIRE 640 336 640 160
WIRE 640 336 144 336
WIRE 1008 416 1008 160
WIRE 1008 416 992 416
FLAG 176 176 0
SYMBOL voltage -160 112 R0
WINDOW 3 -101 91 Left 2
WINDOW 123 0 0 Left 0
WINDOW 39 -85 111 Left 2
SYMATTR Value SINE(0 325 50)
SYMATTR SpiceLine Rser=00.01
SYMATTR InstName V1
SYMBOL ind2 -32 224 M180
WINDOW 0 -28 69 Left 2
WINDOW 3 -17 45 Left 2
SYMATTR InstName L1
SYMATTR Value 9µ
SYMATTR Type ind
SYMBOL ind2 64 192 R180
WINDOW 0 -32 79 Left 2
WINDOW 3 -50 45 Left 2
SYMATTR InstName L2
SYMATTR Value 0.5µ
SYMATTR Type ind
SYMBOL ind2 64 288 R180
WINDOW 0 -33 87 Left 2
WINDOW 3 -47 47 Left 2
SYMATTR InstName L3
SYMATTR Value 0.5µ
SYMATTR Type ind
SYMBOL diode 368 80 R0
SYMATTR InstName D1
SYMATTR Value 1N4148
SYMBOL diode 368 176 R0
SYMATTR InstName D2
SYMATTR Value 1N4148
SYMBOL diode 512 80 R0
SYMATTR InstName D3
SYMATTR Value 1N4148
SYMBOL diode 512 176 R0
SYMATTR InstName D4
SYMATTR Value 1N4148
SYMBOL cap 704 240 R0
SYMATTR InstName C1
SYMATTR Value 2200µ
SYMBOL cap 704 32 R0
SYMATTR InstName C2
SYMATTR Value 2200µ
SYMBOL AutoGenerated\\LM7912 992 32 R90
SYMATTR InstName U1
SYMBOL cap 1168 16 R0
SYMATTR InstName C3
SYMATTR Value 100µ
SYMBOL cap 1168 208 R0
SYMATTR InstName C4
SYMATTR Value 100µ
SYMBOL cap 1296 16 R0
SYMATTR InstName C5
SYMATTR Value 0.1µ
SYMBOL cap 1296 208 R0
SYMATTR InstName C6
SYMATTR Value 0.1µ
SYMBOL PowerProducts\\LT1084-12 992 320 R0
SYMATTR InstName U2
SYMBOL res 1488 16 R0
SYMATTR InstName R1
SYMATTR Value 1.2k
SYMBOL res 1488 176 R0
SYMATTR InstName R2
SYMATTR Value 1.2k
TEXT -56 72 Left 2 !K. L1 L2 L3 1
TEXT -264 280 Left 2 !.tran 1
